<?xml version="1.0" encoding="UTF-8"?>

<!-- generated on 12/18/20 20:18:44 by Eclipse SUMO netedit Version 1.6.0
<configuration xmlns:xsi="http://www.w3.org/2001/XMLSchema-instance" xsi:noNamespaceSchemaLocation="http://sumo.dlr.de/xsd/netconvertConfiguration.xsd">

    <input>
        <sumo-net-file value="C:\Users\CheilyMeli\Sumo\uc3m_computer_modeling_simulation_SUMO\BASE\data\cruce.net.xml"/>
    </input>

    <output>
        <output-file value="C:\Users\CheilyMeli\Sumo\uc3m_computer_modeling_simulation_SUMO\BASE\data\model.3.net.xml"/>
    </output>

    <processing>
        <geometry.min-radius.fix.railways value="false"/>
        <geometry.max-grade.fix value="false"/>
        <offset.disable-normalization value="true"/>
        <lefthand value="false"/>
    </processing>

    <junctions>
        <no-turnarounds value="true"/>
        <junctions.corner-detail value="5"/>
        <junctions.limit-turn-speed value="5.5"/>
        <rectangular-lane-cut value="false"/>
    </junctions>

    <pedestrian>
        <walkingareas value="false"/>
    </pedestrian>

    <report>
        <aggregate-warnings value="5"/>
    </report>

</configuration>
-->

<net version="1.6" junctionCornerDetail="5" limitTurnSpeed="5.50" xmlns:xsi="http://www.w3.org/2001/XMLSchema-instance" xsi:noNamespaceSchemaLocation="http://sumo.dlr.de/xsd/net_file.xsd">

    <location netOffset="500.00,500.00" convBoundary="0.00,0.00,1000.00,1000.00" origBoundary="-500.00,-500.00,500.00,500.00" projParameter="!"/>

    <type id="residencial" priority="1" numLanes="1" speed="8.33"/>
    <type id="urbana" priority="1" numLanes="1" speed="13.89"/>

    <edge id=":centro_0" function="internal">
        <lane id=":centro_0_0" index="0" speed="6.51" length="9.03" shape="495.20,507.20 494.85,504.75 493.80,503.00 492.05,501.95 489.60,501.60"/>
    </edge>
    <edge id=":centro_1" function="internal">
        <lane id=":centro_1_0" index="0" speed="13.89" length="14.40" shape="495.20,507.20 495.20,492.80"/>
        <lane id=":centro_1_1" index="1" speed="13.89" length="14.40" shape="498.40,507.20 498.40,492.80"/>
    </edge>
    <edge id=":centro_3" function="internal">
        <lane id=":centro_3_0" index="0" speed="8.67" length="16.85" shape="498.40,507.20 499.15,503.35 501.40,500.60 505.15,498.95 510.40,498.40"/>
    </edge>
    <edge id=":centro_4" function="internal">
        <lane id=":centro_4_0" index="0" speed="6.51" length="9.03" shape="510.40,501.60 507.95,501.95 506.20,503.00 505.15,504.75 504.80,507.20"/>
    </edge>
    <edge id=":centro_5" function="internal">
        <lane id=":centro_5_0" index="0" speed="11.11" length="20.80" shape="510.40,501.60 489.60,501.60"/>
    </edge>
    <edge id=":centro_6" function="internal">
        <lane id=":centro_6_0" index="0" speed="8.67" length="16.85" shape="510.40,501.60 505.15,501.05 501.40,499.40 499.15,496.65 498.40,492.80"/>
    </edge>
    <edge id=":centro_7" function="internal">
        <lane id=":centro_7_0" index="0" speed="6.51" length="9.03" shape="504.80,492.80 505.15,495.25 506.20,497.00 507.95,498.05 510.40,498.40"/>
    </edge>
    <edge id=":centro_8" function="internal">
        <lane id=":centro_8_0" index="0" speed="13.89" length="14.40" shape="504.80,492.80 504.80,507.20"/>
        <lane id=":centro_8_1" index="1" speed="13.89" length="14.40" shape="501.60,492.80 501.60,507.20"/>
    </edge>
    <edge id=":centro_10" function="internal">
        <lane id=":centro_10_0" index="0" speed="8.67" length="16.85" shape="501.60,492.80 500.85,496.65 498.60,499.40 494.85,501.05 489.60,501.60"/>
    </edge>
    <edge id=":centro_11" function="internal">
        <lane id=":centro_11_0" index="0" speed="6.51" length="9.03" shape="489.60,498.40 492.05,498.05 493.80,497.00 494.85,495.25 495.20,492.80"/>
    </edge>
    <edge id=":centro_12" function="internal">
        <lane id=":centro_12_0" index="0" speed="11.11" length="20.80" shape="489.60,498.40 510.40,498.40"/>
    </edge>
    <edge id=":centro_13" function="internal">
        <lane id=":centro_13_0" index="0" speed="8.67" length="16.85" shape="489.60,498.40 494.85,498.95 498.60,500.60 500.85,503.35 501.60,507.20"/>
    </edge>
    <edge id=":gneJ0_0" function="internal">
        <lane id=":gneJ0_0_0" index="0" speed="13.89" length="9.17" shape="495.20,474.88 495.20,465.70"/>
        <lane id=":gneJ0_0_1" index="1" speed="13.89" length="9.17" shape="498.40,474.88 498.40,465.70"/>
    </edge>
    <edge id=":gneJ0_2" function="internal">
        <lane id=":gneJ0_2_0" index="0" speed="13.52" length="9.18" shape="504.80,465.70 505.06,468.32 505.80,470.01 506.98,471.57 508.55,473.83"/>
    </edge>
    <edge id=":gneJ0_3" function="internal">
        <lane id=":gneJ0_3_0" index="0" speed="13.89" length="9.41" shape="504.80,465.70 504.80,474.88"/>
        <lane id=":gneJ0_3_1" index="1" speed="13.89" length="9.41" shape="501.60,465.70 502.10,468.50 503.20,470.29 504.30,472.08 504.80,474.88"/>
        <lane id=":gneJ0_3_2" index="2" speed="13.89" length="9.41" shape="501.60,465.70 501.60,474.88"/>
    </edge>
    <edge id=":gneJ1_0" function="internal">
        <lane id=":gneJ1_0_0" index="0" speed="8.33" length="9.03" shape="535.60,501.60 526.57,501.60"/>
    </edge>
    <edge id=":gneJ1_1" function="internal">
        <lane id=":gneJ1_1_0" index="0" speed="11.11" length="9.03" shape="527.64,494.65 529.84,496.22 531.37,497.40 533.02,498.14 535.60,498.40"/>
    </edge>
    <edge id=":gneJ1_2" function="internal">
        <lane id=":gneJ1_2_0" index="0" speed="8.33" length="9.03" shape="526.57,498.40 535.60,498.40"/>
    </edge>

    <edge id="c2e" from="centro" to="gneJ1" priority="1" type="residencial">
        <lane id="c2e_0" index="0" speed="8.33" length="16.17" shape="510.40,498.40 526.57,498.40"/>
    </edge>
    <edge id="c2e.33" from="gneJ1" to="este" priority="1" type="residencial">
        <lane id="c2e.33_0" index="0" speed="8.33" length="464.40" shape="535.60,498.40 1000.00,498.40"/>
    </edge>
    <edge id="c2n" from="centro" to="norte" priority="1" type="urbana">
        <lane id="c2n_0" index="0" speed="13.89" length="492.80" shape="504.80,507.20 504.80,1000.00"/>
        <lane id="c2n_1" index="1" speed="13.89" length="492.80" shape="501.60,507.20 501.60,1000.00"/>
    </edge>
    <edge id="c2o" from="centro" to="oeste" priority="1" type="urbana">
        <lane id="c2o_0" index="0" speed="13.89" length="489.60" shape="489.60,501.60 0.00,501.60"/>
    </edge>
    <edge id="c2s" from="centro" to="gneJ0" priority="1" type="urbana">
        <lane id="c2s_0" index="0" speed="13.89" length="17.92" shape="495.20,492.80 495.20,474.88"/>
        <lane id="c2s_1" index="1" speed="13.89" length="17.92" shape="498.40,492.80 498.40,474.88"/>
    </edge>
    <edge id="c2s.37" from="gneJ0" to="sur" priority="1" type="urbana">
        <lane id="c2s.37_0" index="0" speed="13.89" length="465.70" shape="495.20,465.70 495.20,0.00"/>
        <lane id="c2s.37_1" index="1" speed="13.89" length="465.70" shape="498.40,465.70 498.40,0.00"/>
    </edge>
    <edge id="e2c" from="este" to="gneJ1" priority="1" type="residencial">
        <lane id="e2c_0" index="0" speed="8.33" length="464.40" shape="1000.00,501.60 535.60,501.60"/>
    </edge>
    <edge id="e2c.466" from="gneJ1" to="centro" priority="1" type="residencial">
        <lane id="e2c.466_0" index="0" speed="8.33" length="16.17" shape="526.57,501.60 510.40,501.60"/>
    </edge>
    <edge id="gneE0" from="gneJ0" to="gneJ1" priority="-1" shape="500.00,462.82 507.96,475.95 512.10,481.71 518.56,489.37 524.23,494.40 533.18,500.00">
        <lane id="gneE0_0" index="0" speed="13.89" length="28.48" shape="508.55,473.83 509.30,475.07 513.36,480.73 519.71,488.25 525.19,493.11 527.64,494.65"/>
    </edge>
    <edge id="n2c" from="norte" to="centro" priority="1" type="urbana">
        <lane id="n2c_0" index="0" speed="13.89" length="492.80" shape="495.20,1000.00 495.20,507.20"/>
        <lane id="n2c_1" index="1" speed="13.89" length="492.80" shape="498.40,1000.00 498.40,507.20"/>
    </edge>
    <edge id="o2c" from="oeste" to="centro" priority="1" type="urbana">
        <lane id="o2c_0" index="0" speed="13.89" length="489.60" shape="0.00,498.40 489.60,498.40"/>
    </edge>
    <edge id="s2c" from="sur" to="gneJ0" priority="1" type="urbana">
        <lane id="s2c_0" index="0" speed="13.89" length="465.70" shape="504.80,0.00 504.80,465.70"/>
        <lane id="s2c_1" index="1" speed="13.89" length="465.70" shape="501.60,0.00 501.60,465.70"/>
    </edge>
    <edge id="s2c.462" from="gneJ0" to="centro" priority="1" type="urbana">
        <lane id="s2c.462_0" index="0" speed="13.89" length="17.92" shape="504.80,474.88 504.80,492.80"/>
        <lane id="s2c.462_1" index="1" speed="13.89" length="17.92" shape="501.60,474.88 501.60,492.80"/>
    </edge>

    <junction id="centro" type="right_before_left" x="500.00" y="500.00" incLanes="n2c_0 n2c_1 e2c.466_0 s2c.462_0 s2c.462_1 o2c_0" intLanes=":centro_0_0 :centro_1_0 :centro_1_1 :centro_3_0 :centro_4_0 :centro_5_0 :centro_6_0 :centro_7_0 :centro_8_0 :centro_8_1 :centro_10_0 :centro_11_0 :centro_12_0 :centro_13_0" shape="493.60,507.20 506.40,507.20 506.84,504.98 507.40,504.20 508.18,503.64 509.18,503.31 510.40,503.20 510.40,496.80 508.18,496.36 507.40,495.80 506.84,495.02 506.51,494.02 506.40,492.80 493.60,492.80 493.16,495.02 492.60,495.80 491.82,496.36 490.82,496.69 489.60,496.80 489.60,503.20 491.82,503.64 492.60,504.20 493.16,504.98 493.49,505.98">
        <request index="0"  response="00000000000000" foes="00010000100000" cont="0"/>
        <request index="1"  response="11100000000000" foes="11110001100000" cont="0"/>
        <request index="2"  response="11100000000000" foes="11110001100000" cont="0"/>
        <request index="3"  response="11001110000000" foes="11001111100000" cont="0"/>
        <request index="4"  response="00000000000000" foes="00001100000000" cont="0"/>
        <request index="5"  response="00000000001111" foes="10011100001111" cont="0"/>
        <request index="6"  response="01000000001110" foes="01011100001110" cont="0"/>
        <request index="7"  response="00000000000000" foes="01000000001000" cont="0"/>
        <request index="8"  response="00000001110000" foes="11000001111000" cont="0"/>
        <request index="9"  response="00000001110000" foes="11000001111000" cont="0"/>
        <request index="10" response="00000001100111" foes="11000001100111" cont="0"/>
        <request index="11" response="00000000000000" foes="00000000000110" cont="0"/>
        <request index="12" response="00011110000000" foes="00011111001110" cont="0"/>
        <request index="13" response="00011100100000" foes="00011100101110" cont="0"/>
    </junction>
    <junction id="este" type="dead_end" x="1000.00" y="500.00" incLanes="c2e.33_0" intLanes="" shape="1000.00,500.00 1000.00,496.80 1000.00,500.00"/>
    <junction id="gneJ0" type="priority" x="500.00" y="462.82" incLanes="c2s_0 c2s_1 s2c_0 s2c_1" intLanes=":gneJ0_0_0 :gneJ0_0_1 :gneJ0_2_0 :gneJ0_3_0 :gneJ0_3_1 :gneJ0_3_2" shape="493.60,474.88 506.40,474.88 507.18,474.66 509.91,473.00 508.07,470.47 507.37,469.57 506.84,468.62 506.51,467.41 506.40,465.70 493.60,465.70">
        <request index="0" response="000000" foes="000000" cont="0"/>
        <request index="1" response="000000" foes="000000" cont="0"/>
        <request index="2" response="000000" foes="000000" cont="0"/>
        <request index="3" response="010000" foes="010000" cont="0"/>
        <request index="4" response="000000" foes="001000" cont="0"/>
        <request index="5" response="000000" foes="000000" cont="0"/>
    </junction>
    <junction id="gneJ1" type="priority" x="533.18" y="500.00" incLanes="e2c_0 gneE0_0 c2e_0" intLanes=":gneJ1_0_0 :gneJ1_1_0 :gneJ1_2_0" shape="535.60,503.20 535.60,496.80 532.74,496.36 531.82,495.83 530.95,495.14 529.91,494.28 528.49,493.29 526.79,496.00 526.57,496.80 526.57,503.20">
        <request index="0" response="000" foes="000" cont="0"/>
        <request index="1" response="100" foes="100" cont="0"/>
        <request index="2" response="000" foes="010" cont="0"/>
    </junction>
    <junction id="norte" type="dead_end" x="500.00" y="1000.00" incLanes="c2n_0 c2n_1" intLanes="" shape="500.00,1000.00 506.40,1000.00 500.00,1000.00"/>
    <junction id="oeste" type="dead_end" x="0.00" y="500.00" incLanes="c2o_0" intLanes="" shape="0.00,500.00 0.00,503.20 0.00,500.00"/>
    <junction id="sur" type="dead_end" x="500.00" y="0.00" incLanes="c2s.37_0 c2s.37_1" intLanes="" shape="500.00,0.00 493.60,0.00 500.00,0.00"/>

    <connection from="c2e" to="c2e.33" fromLane="0" toLane="0" via=":gneJ1_2_0" dir="s" state="M"/>
    <connection from="c2s" to="c2s.37" fromLane="0" toLane="0" via=":gneJ0_0_0" dir="s" state="M"/>
    <connection from="c2s" to="c2s.37" fromLane="1" toLane="1" via=":gneJ0_0_1" dir="s" state="M"/>
    <connection from="e2c" to="e2c.466" fromLane="0" toLane="0" via=":gneJ1_0_0" dir="s" state="M"/>
    <connection from="e2c.466" to="c2n" fromLane="0" toLane="0" via=":centro_4_0" dir="r" state="="/>
    <connection from="e2c.466" to="c2o" fromLane="0" toLane="0" via=":centro_5_0" dir="s" state="="/>
    <connection from="e2c.466" to="c2s" fromLane="0" toLane="1" via=":centro_6_0" dir="l" state="="/>
    <connection from="gneE0" to="c2e.33" fromLane="0" toLane="0" via=":gneJ1_1_0" dir="s" state="m"/>
    <connection from="n2c" to="c2o" fromLane="0" toLane="0" via=":centro_0_0" dir="r" state="="/>
    <connection from="n2c" to="c2s" fromLane="0" toLane="0" via=":centro_1_0" dir="s" state="="/>
    <connection from="n2c" to="c2s" fromLane="1" toLane="1" via=":centro_1_1" dir="s" state="="/>
    <connection from="n2c" to="c2e" fromLane="1" toLane="0" via=":centro_3_0" dir="l" state="="/>
    <connection from="o2c" to="c2s" fromLane="0" toLane="0" via=":centro_11_0" dir="r" state="="/>
    <connection from="o2c" to="c2e" fromLane="0" toLane="0" via=":centro_12_0" dir="s" state="="/>
    <connection from="o2c" to="c2n" fromLane="0" toLane="1" via=":centro_13_0" dir="l" state="="/>
    <connection from="s2c" to="gneE0" fromLane="0" toLane="0" via=":gneJ0_2_0" dir="R" state="M"/>
    <connection from="s2c" to="s2c.462" fromLane="0" toLane="0" via=":gneJ0_3_0" dir="s" state="m"/>
    <connection from="s2c" to="s2c.462" fromLane="1" toLane="0" via=":gneJ0_3_1" dir="s" state="M"/>
    <connection from="s2c" to="s2c.462" fromLane="1" toLane="1" via=":gneJ0_3_2" dir="s" state="M"/>
    <connection from="s2c.462" to="c2e" fromLane="0" toLane="0" via=":centro_7_0" dir="r" state="="/>
    <connection from="s2c.462" to="c2n" fromLane="0" toLane="0" via=":centro_8_0" dir="s" state="="/>
    <connection from="s2c.462" to="c2n" fromLane="1" toLane="1" via=":centro_8_1" dir="s" state="="/>
    <connection from="s2c.462" to="c2o" fromLane="1" toLane="0" via=":centro_10_0" dir="l" state="="/>

    <connection from=":centro_0" to="c2o" fromLane="0" toLane="0" dir="r" state="M"/>
    <connection from=":centro_1" to="c2s" fromLane="0" toLane="0" dir="s" state="M"/>
    <connection from=":centro_1" to="c2s" fromLane="1" toLane="1" dir="s" state="M"/>
    <connection from=":centro_3" to="c2e" fromLane="0" toLane="0" dir="l" state="M"/>
    <connection from=":centro_4" to="c2n" fromLane="0" toLane="0" dir="r" state="M"/>
    <connection from=":centro_5" to="c2o" fromLane="0" toLane="0" dir="s" state="M"/>
    <connection from=":centro_6" to="c2s" fromLane="0" toLane="1" dir="l" state="M"/>
    <connection from=":centro_7" to="c2e" fromLane="0" toLane="0" dir="r" state="M"/>
    <connection from=":centro_8" to="c2n" fromLane="0" toLane="0" dir="s" state="M"/>
    <connection from=":centro_8" to="c2n" fromLane="1" toLane="1" dir="s" state="M"/>
    <connection from=":centro_10" to="c2o" fromLane="0" toLane="0" dir="l" state="M"/>
    <connection from=":centro_11" to="c2s" fromLane="0" toLane="0" dir="r" state="M"/>
    <connection from=":centro_12" to="c2e" fromLane="0" toLane="0" dir="s" state="M"/>
    <connection from=":centro_13" to="c2n" fromLane="0" toLane="1" dir="l" state="M"/>
    <connection from=":gneJ0_0" to="c2s.37" fromLane="0" toLane="0" dir="s" state="M"/>
    <connection from=":gneJ0_0" to="c2s.37" fromLane="1" toLane="1" dir="s" state="M"/>
    <connection from=":gneJ0_2" to="gneE0" fromLane="0" toLane="0" dir="R" state="M"/>
    <connection from=":gneJ0_3" to="s2c.462" fromLane="0" toLane="0" dir="s" state="M"/>
    <connection from=":gneJ0_3" to="s2c.462" fromLane="1" toLane="0" dir="s" state="M"/>
    <connection from=":gneJ0_3" to="s2c.462" fromLane="2" toLane="1" dir="s" state="M"/>
    <connection from=":gneJ1_0" to="e2c.466" fromLane="0" toLane="0" dir="s" state="M"/>
    <connection from=":gneJ1_1" to="c2e.33" fromLane="0" toLane="0" dir="s" state="M"/>
    <connection from=":gneJ1_2" to="c2e.33" fromLane="0" toLane="0" dir="s" state="M"/>

</net>
