<?xml version="1.0" encoding="UTF-8"?>

<!-- generated on Thu Dec 17 19:14:46 2020 by Eclipse SUMO netedit Version 1.6.0
<configuration xmlns:xsi="http://www.w3.org/2001/XMLSchema-instance" xsi:noNamespaceSchemaLocation="http://sumo.dlr.de/xsd/netconvertConfiguration.xsd">

    <input>
        <sumo-net-file value="/Users/alejandro/Documents/Universidad/UC3M/MASTER/Curso2021/ComputerModelingSimulation/p4/SUMO_ficheros_practica/ApartadoB/data/cruce.net.xml"/>
    </input>

    <output>
        <output-file value="/Users/alejandro/Documents/Universidad/UC3M/MASTER/Curso2021/ComputerModelingSimulation/p4/SUMO_ficheros_practica/ApartadoB/data/cruce.2lineas.net.xml"/>
    </output>

    <processing>
        <geometry.min-radius.fix.railways value="false"/>
        <geometry.max-grade.fix value="false"/>
        <offset.disable-normalization value="true"/>
        <lefthand value="false"/>
    </processing>

    <junctions>
        <no-turnarounds value="true"/>
        <junctions.corner-detail value="5"/>
        <junctions.limit-turn-speed value="5.5"/>
        <rectangular-lane-cut value="false"/>
    </junctions>

    <pedestrian>
        <walkingareas value="false"/>
    </pedestrian>

    <report>
        <aggregate-warnings value="5"/>
    </report>

</configuration>
-->

<net version="1.6" junctionCornerDetail="5" limitTurnSpeed="5.50" xmlns:xsi="http://www.w3.org/2001/XMLSchema-instance" xsi:noNamespaceSchemaLocation="http://sumo.dlr.de/xsd/net_file.xsd">

    <location netOffset="500.00,500.00" convBoundary="0.00,0.00,1000.00,1000.00" origBoundary="-500.00,-500.00,500.00,500.00" projParameter="!"/>

    <type id="residencial" priority="1" numLanes="1" speed="8.33"/>
    <type id="urbana" priority="1" numLanes="1" speed="13.89"/>

    <edge id=":centro_0" function="internal">
        <lane id=":centro_0_0" index="0" speed="6.51" length="9.03" shape="495.20,510.40 494.85,507.95 493.80,506.20 492.05,505.15 489.60,504.80"/>
    </edge>
    <edge id=":centro_1" function="internal">
        <lane id=":centro_1_0" index="0" speed="13.89" length="20.80" shape="495.20,510.40 495.20,489.60"/>
        <lane id=":centro_1_1" index="1" speed="13.89" length="20.80" shape="498.40,510.40 498.40,489.60"/>
    </edge>
    <edge id=":centro_3" function="internal">
        <lane id=":centro_3_0" index="0" speed="9.26" length="19.35" shape="498.40,510.40 499.15,505.15 501.40,501.40 505.15,499.15 510.40,498.40"/>
    </edge>
    <edge id=":centro_4" function="internal">
        <lane id=":centro_4_0" index="0" speed="7.33" length="11.73" shape="510.40,501.60 507.95,502.15 506.20,503.80 505.15,506.55 504.80,510.40"/>
    </edge>
    <edge id=":centro_5" function="internal">
        <lane id=":centro_5_0" index="0" speed="11.11" length="20.80" shape="510.40,501.60 489.60,501.60"/>
    </edge>
    <edge id=":centro_6" function="internal">
        <lane id=":centro_6_0" index="0" speed="9.26" length="19.35" shape="510.40,501.60 505.15,500.85 501.40,498.60 499.15,494.85 498.40,489.60"/>
    </edge>
    <edge id=":centro_7" function="internal">
        <lane id=":centro_7_0" index="0" speed="7.33" length="11.73" shape="504.80,489.60 505.15,493.45 506.20,496.20 507.95,497.85 510.40,498.40"/>
    </edge>
    <edge id=":centro_8" function="internal">
        <lane id=":centro_8_0" index="0" speed="13.89" length="20.80" shape="504.80,489.60 504.80,510.40"/>
        <lane id=":centro_8_1" index="1" speed="13.89" length="20.80" shape="501.60,489.60 501.60,510.40"/>
    </edge>
    <edge id=":centro_10" function="internal">
        <lane id=":centro_10_0" index="0" speed="9.26" length="19.35" shape="501.60,489.60 500.85,494.85 498.60,498.60 494.85,500.85 489.60,501.60"/>
    </edge>
    <edge id=":centro_11" function="internal">
        <lane id=":centro_11_0" index="0" speed="6.51" length="9.03" shape="489.60,495.20 492.05,494.85 493.80,493.80 494.85,492.05 495.20,489.60"/>
    </edge>
    <edge id=":centro_12" function="internal">
        <lane id=":centro_12_0" index="0" speed="11.11" length="21.09" shape="489.60,495.20 496.37,495.70 501.88,496.80 506.45,497.90 510.40,498.40"/>
    </edge>
    <edge id=":centro_13" function="internal">
        <lane id=":centro_13_0" index="0" speed="9.26" length="19.35" shape="489.60,498.40 494.85,499.15 498.60,501.40 500.85,505.15 501.60,510.40"/>
    </edge>

    <edge id="c2e" from="centro" to="este" priority="1" type="residencial">
        <lane id="c2e_0" index="0" speed="8.33" length="489.60" shape="510.40,498.40 1000.00,498.40"/>
    </edge>
    <edge id="c2n" from="centro" to="norte" priority="1" type="urbana">
        <lane id="c2n_0" index="0" speed="13.89" length="489.60" shape="504.80,510.40 504.80,1000.00"/>
        <lane id="c2n_1" index="1" speed="13.89" length="489.60" shape="501.60,510.40 501.60,1000.00"/>
    </edge>
    <edge id="c2o" from="centro" to="oeste" priority="1" type="urbana">
        <lane id="c2o_0" index="0" speed="13.89" length="489.60" shape="489.60,504.80 0.00,504.80"/>
        <lane id="c2o_1" index="1" speed="13.89" length="489.60" shape="489.60,501.60 0.00,501.60"/>
    </edge>
    <edge id="c2s" from="centro" to="sur" priority="1" type="urbana">
        <lane id="c2s_0" index="0" speed="13.89" length="489.60" shape="495.20,489.60 495.20,0.00"/>
        <lane id="c2s_1" index="1" speed="13.89" length="489.60" shape="498.40,489.60 498.40,0.00"/>
    </edge>
    <edge id="e2c" from="este" to="centro" priority="1" type="residencial">
        <lane id="e2c_0" index="0" speed="8.33" length="489.60" shape="1000.00,501.60 510.40,501.60"/>
    </edge>
    <edge id="n2c" from="norte" to="centro" priority="1" type="urbana">
        <lane id="n2c_0" index="0" speed="13.89" length="489.60" shape="495.20,1000.00 495.20,510.40"/>
        <lane id="n2c_1" index="1" speed="13.89" length="489.60" shape="498.40,1000.00 498.40,510.40"/>
    </edge>
    <edge id="o2c" from="oeste" to="centro" priority="1" type="urbana">
        <lane id="o2c_0" index="0" speed="13.89" length="489.60" shape="0.00,495.20 489.60,495.20"/>
        <lane id="o2c_1" index="1" speed="13.89" length="489.60" shape="0.00,498.40 489.60,498.40"/>
    </edge>
    <edge id="s2c" from="sur" to="centro" priority="1" type="urbana">
        <lane id="s2c_0" index="0" speed="13.89" length="489.60" shape="504.80,0.00 504.80,489.60"/>
        <lane id="s2c_1" index="1" speed="13.89" length="489.60" shape="501.60,0.00 501.60,489.60"/>
    </edge>

    <junction id="centro" type="right_before_left" x="500.00" y="500.00" incLanes="n2c_0 n2c_1 e2c_0 s2c_0 s2c_1 o2c_0 o2c_1" intLanes=":centro_0_0 :centro_1_0 :centro_1_1 :centro_3_0 :centro_4_0 :centro_5_0 :centro_6_0 :centro_7_0 :centro_8_0 :centro_8_1 :centro_10_0 :centro_11_0 :centro_12_0 :centro_13_0" shape="493.60,510.40 506.40,510.40 506.51,508.20 506.84,506.40 507.40,505.00 508.18,504.00 509.18,503.40 510.40,503.20 510.40,496.80 508.18,496.00 507.40,495.00 506.84,493.60 506.51,491.80 506.40,489.60 493.60,489.60 493.16,491.82 492.60,492.60 491.82,493.16 490.82,493.49 489.60,493.60 489.60,506.40 491.82,506.84 492.60,507.40 493.16,508.18 493.49,509.18">
        <request index="0"  response="00000000000000" foes="00000000000000" cont="0"/>
        <request index="1"  response="11100000000000" foes="11110001100000" cont="0"/>
        <request index="2"  response="11100000000000" foes="11110001100000" cont="0"/>
        <request index="3"  response="11001110000000" foes="11001111100000" cont="0"/>
        <request index="4"  response="00000000000000" foes="00001100000000" cont="0"/>
        <request index="5"  response="00000000001110" foes="10011100001110" cont="0"/>
        <request index="6"  response="01000000001110" foes="01011100001110" cont="0"/>
        <request index="7"  response="00000000000000" foes="01000000001000" cont="0"/>
        <request index="8"  response="00000001110000" foes="11000001111000" cont="0"/>
        <request index="9"  response="00000001110000" foes="11000001111000" cont="0"/>
        <request index="10" response="00000001100110" foes="11000001100110" cont="0"/>
        <request index="11" response="00000000000000" foes="00000000000110" cont="0"/>
        <request index="12" response="00011110000000" foes="00011111001110" cont="0"/>
        <request index="13" response="00011100100000" foes="00011100101110" cont="0"/>
    </junction>
    <junction id="este" type="dead_end" x="1000.00" y="500.00" incLanes="c2e_0" intLanes="" shape="1000.00,500.00 1000.00,496.80 1000.00,500.00"/>
    <junction id="norte" type="dead_end" x="500.00" y="1000.00" incLanes="c2n_0 c2n_1" intLanes="" shape="500.00,1000.00 506.40,1000.00 500.00,1000.00"/>
    <junction id="oeste" type="dead_end" x="0.00" y="500.00" incLanes="c2o_0 c2o_1" intLanes="" shape="0.00,500.00 0.00,506.40 0.00,500.00"/>
    <junction id="sur" type="dead_end" x="500.00" y="0.00" incLanes="c2s_0 c2s_1" intLanes="" shape="500.00,0.00 493.60,0.00 500.00,0.00"/>

    <connection from="e2c" to="c2n" fromLane="0" toLane="0" via=":centro_4_0" dir="r" state="="/>
    <connection from="e2c" to="c2o" fromLane="0" toLane="1" via=":centro_5_0" dir="s" state="="/>
    <connection from="e2c" to="c2s" fromLane="0" toLane="1" via=":centro_6_0" dir="l" state="="/>
    <connection from="n2c" to="c2o" fromLane="0" toLane="0" via=":centro_0_0" dir="r" state="="/>
    <connection from="n2c" to="c2s" fromLane="0" toLane="0" via=":centro_1_0" dir="s" state="="/>
    <connection from="n2c" to="c2s" fromLane="1" toLane="1" via=":centro_1_1" dir="s" state="="/>
    <connection from="n2c" to="c2e" fromLane="1" toLane="0" via=":centro_3_0" dir="l" state="="/>
    <connection from="o2c" to="c2s" fromLane="0" toLane="0" via=":centro_11_0" dir="r" state="="/>
    <connection from="o2c" to="c2e" fromLane="0" toLane="0" via=":centro_12_0" dir="s" state="="/>
    <connection from="o2c" to="c2n" fromLane="1" toLane="1" via=":centro_13_0" dir="l" state="="/>
    <connection from="s2c" to="c2e" fromLane="0" toLane="0" via=":centro_7_0" dir="r" state="="/>
    <connection from="s2c" to="c2n" fromLane="0" toLane="0" via=":centro_8_0" dir="s" state="="/>
    <connection from="s2c" to="c2n" fromLane="1" toLane="1" via=":centro_8_1" dir="s" state="="/>
    <connection from="s2c" to="c2o" fromLane="1" toLane="1" via=":centro_10_0" dir="l" state="="/>

    <connection from=":centro_0" to="c2o" fromLane="0" toLane="0" dir="r" state="M"/>
    <connection from=":centro_1" to="c2s" fromLane="0" toLane="0" dir="s" state="M"/>
    <connection from=":centro_1" to="c2s" fromLane="1" toLane="1" dir="s" state="M"/>
    <connection from=":centro_3" to="c2e" fromLane="0" toLane="0" dir="l" state="M"/>
    <connection from=":centro_4" to="c2n" fromLane="0" toLane="0" dir="r" state="M"/>
    <connection from=":centro_5" to="c2o" fromLane="0" toLane="1" dir="s" state="M"/>
    <connection from=":centro_6" to="c2s" fromLane="0" toLane="1" dir="l" state="M"/>
    <connection from=":centro_7" to="c2e" fromLane="0" toLane="0" dir="r" state="M"/>
    <connection from=":centro_8" to="c2n" fromLane="0" toLane="0" dir="s" state="M"/>
    <connection from=":centro_8" to="c2n" fromLane="1" toLane="1" dir="s" state="M"/>
    <connection from=":centro_10" to="c2o" fromLane="0" toLane="1" dir="l" state="M"/>
    <connection from=":centro_11" to="c2s" fromLane="0" toLane="0" dir="r" state="M"/>
    <connection from=":centro_12" to="c2e" fromLane="0" toLane="0" dir="s" state="M"/>
    <connection from=":centro_13" to="c2n" fromLane="0" toLane="1" dir="l" state="M"/>

</net>
