<?xml version="1.0" encoding="UTF-8"?>

<!-- generated on Thu Dec 10 16:06:09 2020 by Eclipse SUMO netedit Version 1.6.0
<configuration xmlns:xsi="http://www.w3.org/2001/XMLSchema-instance" xsi:noNamespaceSchemaLocation="http://sumo.dlr.de/xsd/netconvertConfiguration.xsd">

    <input>
        <sumo-net-file value="/Users/alejandro/Documents/Universidad/UC3M/MASTER/Curso2021/ComputerModelingSimulation/p4/SUMO_ficheros_practica/ApartadoA/data/cruce.rotonda.net.xml"/>
    </input>

    <output>
        <output-file value="/Users/alejandro/Documents/Universidad/UC3M/MASTER/Curso2021/ComputerModelingSimulation/p4/SUMO_ficheros_practica/ApartadoA/data/cruce.rotonda.net.xml"/>
    </output>

    <processing>
        <geometry.min-radius.fix.railways value="false"/>
        <geometry.max-grade.fix value="false"/>
        <offset.disable-normalization value="true"/>
        <lefthand value="false"/>
    </processing>

    <junctions>
        <no-turnarounds value="true"/>
        <junctions.corner-detail value="5"/>
        <junctions.limit-turn-speed value="5.5"/>
        <rectangular-lane-cut value="false"/>
    </junctions>

    <pedestrian>
        <walkingareas value="false"/>
    </pedestrian>

    <report>
        <aggregate-warnings value="5"/>
    </report>

</configuration>
-->

<net version="1.6" junctionCornerDetail="5" limitTurnSpeed="5.50" xmlns:xsi="http://www.w3.org/2001/XMLSchema-instance" xsi:noNamespaceSchemaLocation="http://sumo.dlr.de/xsd/net_file.xsd">

    <location netOffset="500.00,500.00" convBoundary="0.00,0.00,1000.00,1000.00" origBoundary="-500.00,-500.00,500.00,500.00" projParameter="!"/>

    <type id="residencial" priority="1" numLanes="1" speed="8.33"/>
    <type id="urbana" priority="1" numLanes="1" speed="13.89"/>

    <edge id=":rotondaEste_0" function="internal">
        <lane id=":rotondaEste_0_0" index="0" speed="6.64" length="7.46" shape="546.09,501.60 544.12,501.86 542.55,502.63 541.37,503.93 540.58,505.73"/>
    </edge>
    <edge id=":rotondaEste_1" function="internal">
        <lane id=":rotondaEste_1_0" index="0" speed="6.58" length="7.44" shape="540.67,494.22 541.42,496.05 542.57,497.35 544.13,498.14 546.09,498.40"/>
    </edge>
    <edge id=":rotondaEste_2" function="internal">
        <lane id=":rotondaEste_2_0" index="0" speed="13.89" length="10.90" shape="540.67,494.22 541.49,497.59 541.76,499.99 541.46,502.38 540.58,505.73"/>
        <lane id=":rotondaEste_2_1" index="1" speed="13.89" length="10.90" shape="537.57,495.03 538.28,497.91 538.51,499.96 538.26,502.00 537.51,504.86"/>
    </edge>
    <edge id=":rotondaNorte_0" function="internal">
        <lane id=":rotondaNorte_0_0" index="0" speed="6.59" length="7.27" shape="498.40,543.03 498.15,541.12 497.39,539.59 496.13,538.43 494.37,537.66"/>
    </edge>
    <edge id=":rotondaNorte_1" function="internal">
        <lane id=":rotondaNorte_1_0" index="0" speed="6.60" length="7.27" shape="505.62,537.64 503.86,538.43 502.61,539.59 501.85,541.12 501.60,543.03"/>
    </edge>
    <edge id=":rotondaNorte_2" function="internal">
        <lane id=":rotondaNorte_2_0" index="0" speed="13.89" length="10.60" shape="505.62,537.64 502.35,538.54 500.00,538.84 497.65,538.54 494.37,537.66"/>
        <lane id=":rotondaNorte_2_1" index="1" speed="13.28" length="10.60" shape="504.72,534.58 501.97,535.33 499.99,535.58 498.02,535.33 495.27,534.58"/>
    </edge>
    <edge id=":rotondaOeste_0" function="internal">
        <lane id=":rotondaOeste_0_0" index="0" speed="6.60" length="7.15" shape="461.06,505.52 460.26,503.80 459.10,502.58 457.59,501.84 455.71,501.60"/>
    </edge>
    <edge id=":rotondaOeste_1" function="internal">
        <lane id=":rotondaOeste_1_0" index="0" speed="13.09" length="10.28" shape="461.06,505.52 460.12,502.32 459.82,500.01 460.15,497.71 461.14,494.54"/>
        <lane id=":rotondaOeste_1_1" index="1" speed="11.87" length="10.28" shape="464.11,504.56 463.34,501.94 463.09,500.05 463.36,498.17 464.17,495.58"/>
    </edge>
    <edge id=":rotondaOeste_3" function="internal">
        <lane id=":rotondaOeste_3_0" index="0" speed="6.68" length="7.16" shape="455.71,498.40 457.59,498.16 459.13,497.44 460.31,496.23 461.14,494.54"/>
    </edge>
    <edge id=":rotondaSur_0" function="internal">
        <lane id=":rotondaSur_0_0" index="0" speed="6.54" length="8.09" shape="501.60,459.22 501.90,461.38 502.79,463.02 504.28,464.15 506.37,464.76"/>
    </edge>
    <edge id=":rotondaSur_1" function="internal">
        <lane id=":rotondaSur_1_0" index="0" speed="6.69" length="8.17" shape="493.73,465.01 495.77,464.30 497.23,463.10 498.11,461.41 498.40,459.22"/>
    </edge>
    <edge id=":rotondaSur_2" function="internal">
        <lane id=":rotondaSur_2_0" index="0" speed="13.89" length="12.20" shape="493.73,465.01 497.44,464.32 500.03,464.07 502.63,464.23 506.37,464.76"/>
        <lane id=":rotondaSur_2_1" index="1" speed="13.89" length="12.20" shape="494.36,468.15 497.75,467.52 500.11,467.30 502.48,467.44 505.90,467.92"/>
    </edge>

    <edge id="c2e" from="rotondaEste" to="este" priority="1" type="residencial">
        <lane id="c2e_0" index="0" speed="8.33" length="453.91" shape="546.09,498.40 1000.00,498.40"/>
    </edge>
    <edge id="c2n" from="rotondaNorte" to="norte" priority="1" type="urbana">
        <lane id="c2n_0" index="0" speed="13.89" length="456.97" shape="501.60,543.03 501.60,1000.00"/>
    </edge>
    <edge id="c2o" from="rotondaOeste" to="oeste" priority="1" type="urbana">
        <lane id="c2o_0" index="0" speed="13.89" length="455.71" shape="455.71,501.60 -0.00,501.60"/>
    </edge>
    <edge id="c2s" from="rotondaSur" to="sur" priority="1" type="urbana">
        <lane id="c2s_0" index="0" speed="13.89" length="459.22" shape="498.40,459.22 498.40,0.00"/>
    </edge>
    <edge id="e2c" from="este" to="rotondaEste" priority="1" type="residencial">
        <lane id="e2c_0" index="0" speed="8.33" length="453.91" shape="1000.00,501.60 546.09,501.60"/>
    </edge>
    <edge id="n2c" from="norte" to="rotondaNorte" priority="1" type="urbana">
        <lane id="n2c_0" index="0" speed="13.89" length="456.97" shape="498.40,1000.00 498.40,543.03"/>
    </edge>
    <edge id="o2c" from="oeste" to="rotondaOeste" priority="1" type="urbana">
        <lane id="o2c_0" index="0" speed="13.89" length="455.71" shape="-0.00,498.40 455.71,498.40"/>
    </edge>
    <edge id="r2e" from="rotondaSur" to="rotondaEste" priority="-1" shape="500.00,468.66 517.33,471.25 533.16,484.49 537.22,500.00">
        <lane id="r2e_0" index="0" speed="13.89" length="47.59" shape="506.37,464.76 519.37,466.70 537.42,481.79 540.67,494.22"/>
        <lane id="r2e_1" index="1" speed="13.89" length="47.59" shape="505.90,467.92 518.01,469.73 534.58,483.59 537.57,495.03"/>
    </edge>
    <edge id="r2n" from="rotondaEste" to="rotondaNorte" priority="-1" shape="537.22,500.00 532.45,516.84 517.10,529.25 500.00,534.30">
        <lane id="r2n_0" index="0" speed="13.89" length="49.33" shape="540.58,505.73 536.65,519.61 519.38,533.58 505.62,537.64"/>
        <lane id="r2n_1" index="1" speed="13.89" length="49.33" shape="537.51,504.86 533.85,517.76 517.86,530.69 504.72,534.58"/>
    </edge>
    <edge id="r2o" from="rotondaNorte" to="rotondaOeste" priority="-1" shape="500.00,534.30 481.41,528.87 469.59,516.63 464.35,500.00">
        <lane id="r2o_0" index="0" speed="13.89" length="48.29" shape="494.37,537.66 478.84,533.12 465.35,519.15 461.06,505.52"/>
        <lane id="r2o_1" index="1" speed="13.89" length="48.29" shape="495.27,534.58 480.55,530.29 468.18,517.47 464.11,504.56"/>
    </edge>
    <edge id="r2s" from="rotondaOeste" to="rotondaSur" priority="-1" shape="464.35,500.00 469.44,485.10 480.52,472.54 500.00,468.66">
        <lane id="r2s_0" index="0" speed="13.89" length="46.23" shape="461.14,494.54 465.21,482.64 477.99,468.15 493.73,465.01"/>
        <lane id="r2s_1" index="1" speed="13.89" length="46.23" shape="464.17,495.58 468.03,484.28 479.68,471.08 494.36,468.15"/>
    </edge>
    <edge id="s2c" from="sur" to="rotondaSur" priority="1" type="urbana">
        <lane id="s2c_0" index="0" speed="13.89" length="459.22" shape="501.60,0.00 501.60,459.22"/>
    </edge>

    <junction id="este" type="dead_end" x="1000.00" y="500.00" incLanes="c2e_0" intLanes="" shape="1000.00,500.00 1000.00,496.80 1000.00,500.00"/>
    <junction id="norte" type="dead_end" x="500.00" y="1000.00" incLanes="c2n_0" intLanes="" shape="500.00,1000.00 503.20,1000.00 500.00,1000.00"/>
    <junction id="oeste" type="dead_end" x="0.00" y="500.00" incLanes="c2o_0" intLanes="" shape="-0.00,500.00 -0.00,503.20 -0.00,500.00"/>
    <junction id="rotondaEste" type="priority" x="537.22" y="500.00" incLanes="e2c_0 r2e_0 r2e_1" intLanes=":rotondaEste_0_0 :rotondaEste_1_0 :rotondaEste_2_0 :rotondaEste_2_1" shape="546.09,503.20 546.09,496.80 544.28,496.47 543.57,496.05 542.99,495.47 542.54,494.73 542.22,493.81 536.02,495.43 536.79,498.74 536.88,499.94 536.78,501.14 536.48,502.56 535.97,504.43 542.12,506.17 542.94,504.52 543.54,503.94 544.26,503.53 545.11,503.28">
        <request index="0" response="0100" foes="0100" cont="0"/>
        <request index="1" response="0000" foes="0000" cont="0"/>
        <request index="2" response="0000" foes="0001" cont="0"/>
        <request index="3" response="0000" foes="0000" cont="0"/>
    </junction>
    <junction id="rotondaNorte" type="priority" x="500.00" y="534.30" incLanes="n2c_0 r2n_0 r2n_1" intLanes=":rotondaNorte_0_0 :rotondaNorte_1_0 :rotondaNorte_2_0 :rotondaNorte_2_1" shape="496.80,543.03 503.20,543.03 503.52,541.27 503.92,540.57 504.48,539.98 505.20,539.52 506.08,539.18 504.26,533.04 501.14,533.85 499.99,533.95 498.84,533.85 497.49,533.55 495.72,533.05 493.92,539.19 495.52,539.99 496.08,540.57 496.48,541.27 496.72,542.09">
        <request index="0" response="0100" foes="0100" cont="0"/>
        <request index="1" response="0000" foes="0000" cont="0"/>
        <request index="2" response="0000" foes="0001" cont="0"/>
        <request index="3" response="0000" foes="0000" cont="0"/>
    </junction>
    <junction id="rotondaOeste" type="priority" x="464.35" y="500.00" incLanes="r2o_0 r2o_1 o2c_0" intLanes=":rotondaOeste_0_0 :rotondaOeste_1_0 :rotondaOeste_1_1 :rotondaOeste_3_0" shape="459.53,506.00 465.63,504.07 464.83,501.15 464.73,500.07 464.83,498.99 465.15,497.73 465.68,496.09 459.63,494.02 458.77,495.57 458.18,496.11 457.47,496.49 456.65,496.72 455.71,496.80 455.71,503.20 457.44,503.51 458.14,503.90 458.71,504.44 459.18,505.14">
        <request index="0" response="0000" foes="0000" cont="0"/>
        <request index="1" response="0000" foes="1000" cont="0"/>
        <request index="2" response="0000" foes="0000" cont="0"/>
        <request index="3" response="0010" foes="0010" cont="0"/>
    </junction>
    <junction id="rotondaSur" type="priority" x="500.00" y="468.66" incLanes="s2c_0 r2s_0 r2s_1" intLanes=":rotondaSur_0_0 :rotondaSur_1_0 :rotondaSur_2_0 :rotondaSur_2_1" shape="505.66,469.51 506.61,463.18 504.72,462.51 504.05,461.93 503.58,461.19 503.29,460.29 503.20,459.22 496.80,459.22 496.42,461.27 495.95,462.05 495.30,462.68 494.45,463.14 493.42,463.44 494.67,469.72 496.98,469.28 498.71,469.01 500.15,468.91 501.59,468.96 503.34,469.17">
        <request index="0" response="0100" foes="0100" cont="0"/>
        <request index="1" response="0000" foes="0000" cont="0"/>
        <request index="2" response="0000" foes="0001" cont="0"/>
        <request index="3" response="0000" foes="0000" cont="0"/>
    </junction>
    <junction id="sur" type="dead_end" x="500.00" y="0.00" incLanes="c2s_0" intLanes="" shape="500.00,0.00 496.80,0.00 500.00,0.00"/>

    <connection from="e2c" to="r2n" fromLane="0" toLane="0" via=":rotondaEste_0_0" dir="r" state="m"/>
    <connection from="n2c" to="r2o" fromLane="0" toLane="0" via=":rotondaNorte_0_0" dir="r" state="m"/>
    <connection from="o2c" to="r2s" fromLane="0" toLane="0" via=":rotondaOeste_3_0" dir="r" state="m"/>
    <connection from="r2e" to="c2e" fromLane="0" toLane="0" via=":rotondaEste_1_0" dir="r" state="M"/>
    <connection from="r2e" to="r2n" fromLane="0" toLane="0" via=":rotondaEste_2_0" dir="s" state="M"/>
    <connection from="r2e" to="r2n" fromLane="1" toLane="1" via=":rotondaEste_2_1" dir="s" state="M"/>
    <connection from="r2n" to="c2n" fromLane="0" toLane="0" via=":rotondaNorte_1_0" dir="r" state="M"/>
    <connection from="r2n" to="r2o" fromLane="0" toLane="0" via=":rotondaNorte_2_0" dir="s" state="M"/>
    <connection from="r2n" to="r2o" fromLane="1" toLane="1" via=":rotondaNorte_2_1" dir="s" state="M"/>
    <connection from="r2o" to="c2o" fromLane="0" toLane="0" via=":rotondaOeste_0_0" dir="r" state="M"/>
    <connection from="r2o" to="r2s" fromLane="0" toLane="0" via=":rotondaOeste_1_0" dir="s" state="M"/>
    <connection from="r2o" to="r2s" fromLane="1" toLane="1" via=":rotondaOeste_1_1" dir="s" state="M"/>
    <connection from="r2s" to="c2s" fromLane="0" toLane="0" via=":rotondaSur_1_0" dir="r" state="M"/>
    <connection from="r2s" to="r2e" fromLane="0" toLane="0" via=":rotondaSur_2_0" dir="s" state="M"/>
    <connection from="r2s" to="r2e" fromLane="1" toLane="1" via=":rotondaSur_2_1" dir="s" state="M"/>
    <connection from="s2c" to="r2e" fromLane="0" toLane="0" via=":rotondaSur_0_0" dir="r" state="m"/>

    <connection from=":rotondaEste_0" to="r2n" fromLane="0" toLane="0" dir="r" state="M"/>
    <connection from=":rotondaEste_1" to="c2e" fromLane="0" toLane="0" dir="r" state="M"/>
    <connection from=":rotondaEste_2" to="r2n" fromLane="0" toLane="0" dir="s" state="M"/>
    <connection from=":rotondaEste_2" to="r2n" fromLane="1" toLane="1" dir="s" state="M"/>
    <connection from=":rotondaNorte_0" to="r2o" fromLane="0" toLane="0" dir="r" state="M"/>
    <connection from=":rotondaNorte_1" to="c2n" fromLane="0" toLane="0" dir="r" state="M"/>
    <connection from=":rotondaNorte_2" to="r2o" fromLane="0" toLane="0" dir="s" state="M"/>
    <connection from=":rotondaNorte_2" to="r2o" fromLane="1" toLane="1" dir="s" state="M"/>
    <connection from=":rotondaOeste_0" to="c2o" fromLane="0" toLane="0" dir="r" state="M"/>
    <connection from=":rotondaOeste_1" to="r2s" fromLane="0" toLane="0" dir="s" state="M"/>
    <connection from=":rotondaOeste_1" to="r2s" fromLane="1" toLane="1" dir="s" state="M"/>
    <connection from=":rotondaOeste_3" to="r2s" fromLane="0" toLane="0" dir="r" state="M"/>
    <connection from=":rotondaSur_0" to="r2e" fromLane="0" toLane="0" dir="r" state="M"/>
    <connection from=":rotondaSur_1" to="c2s" fromLane="0" toLane="0" dir="r" state="M"/>
    <connection from=":rotondaSur_2" to="r2e" fromLane="0" toLane="0" dir="s" state="M"/>
    <connection from=":rotondaSur_2" to="r2e" fromLane="1" toLane="1" dir="s" state="M"/>

    <roundabout nodes="rotondaEste rotondaNorte rotondaOeste rotondaSur" edges="r2e r2n r2o r2s"/>

</net>
