<?xml version="1.0" encoding="UTF-8"?>

<!-- generated on 12/03/20 16:48:52 by Eclipse SUMO GUI Version 1.6.0
-->

<configuration xmlns:xsi="http://www.w3.org/2001/XMLSchema-instance" xsi:noNamespaceSchemaLocation="http://sumo.dlr.de/xsd/sumoConfiguration.xsd">

    <input>
        <net-file value="generated/cruce.net.xml"/>
        <route-files value="output/cruce.duarouter.xml"/>
    </input>

    <time>
        <begin value="0"/>
        <end value="10000"/>
    </time>

</configuration>
